
     RDKit          3D

 42 44  0  0  0  0  0  0  0  0999 V2000
   -3.1490    0.7410    9.9910 P   0  0  0  0  0  0  0  0  0  0  0  0
   -2.2470    1.8920   10.2180 O   0  0  0  0  0  0  0  0  0  0  0  0
   -4.5950    1.1010    9.9820 O   0  0  0  0  0  0  0  0  0  0  0  0
   -2.7100   -0.0750    8.7210 O   0  0  0  0  0  0  0  0  0  0  0  0
   -2.3600   -1.6220   11.4160 P   0  0  0  0  0  0  0  0  0  0  0  0
   -3.2250   -2.6000   10.6430 O   0  0  0  0  0  0  0  0  0  0  0  0
   -0.9010   -1.6400   11.0530 O   0  0  0  0  0  0  0  0  0  0  0  0
   -2.9220   -0.1650   11.2680 O   0  0  0  0  0  0  0  0  0  0  0  0
   -2.6820   -1.9450   12.9380 O   0  0  0  0  0  0  0  0  0  0  0  0
   -2.0420   -1.1660   13.9940 C   0  0  0  0  0  0  0  0  0  0  0  0
   -1.2350   -1.9670   15.0120 C   0  0  1  0  0  0  0  0  0  0  0  0
   -2.0790   -2.4240   16.0950 O   0  0  0  0  0  0  0  0  0  0  0  0
   -0.5190   -3.2280   14.5100 C   0  0  1  0  0  0  0  0  0  0  0  0
    0.7970   -3.2510   15.1060 O   0  0  0  0  0  0  0  0  0  0  0  0
   -1.4520   -4.3710   14.9220 C   0  0  1  0  0  0  0  0  0  0  0  0
   -0.7350   -5.5570   15.3140 O   0  0  0  0  0  0  0  0  0  0  0  0
   -2.2380   -3.8290   16.1260 C   0  0  2  0  0  0  0  0  0  0  0  0
   -3.7220   -4.1770   16.1000 N   0  0  0  0  0  0  0  0  0  0  0  0
   -4.5540   -4.2370   15.0260 C   0  0  0  0  0  0  0  0  0  0  0  0
   -5.8170   -4.5790   15.3530 N   0  0  0  0  0  0  0  0  0  0  0  0
   -5.7740   -4.7390   16.6970 C   0  0  0  0  0  0  0  0  0  0  0  0
   -6.8010   -5.1070   17.6550 C   0  0  0  0  0  0  0  0  0  0  0  0
   -8.0240   -5.3630   17.3920 N   0  0  0  0  0  0  0  0  0  0  0  0
   -6.3570   -5.1700   18.9640 N   0  0  0  0  0  0  0  0  0  0  0  0
   -5.0500   -4.9110   19.3470 C   0  0  0  0  0  0  0  0  0  0  0  0
   -4.0940   -4.5710   18.4820 N   0  0  0  0  0  0  0  0  0  0  0  0
   -4.4890   -4.4970   17.1820 C   0  0  0  0  0  0  0  0  0  0  0  0
   -4.9207    1.1821   10.9134 H   0  0  0  0  0  0  0  0  0  0  0  0
   -2.2606   -0.9103    9.0046 H   0  0  0  0  0  0  0  0  0  0  0  0
   -0.3555   -1.6467   11.8791 H   0  0  0  0  0  0  0  0  0  0  0  0
   -1.3626   -0.4443   13.5169 H   0  0  0  0  0  0  0  0  0  0  0  0
   -2.8615   -0.7003   14.5611 H   0  0  0  0  0  0  0  0  0  0  0  0
   -0.4660   -1.2370   15.3048 H   0  0  0  0  0  0  0  0  0  0  0  0
   -0.3419   -3.2921   13.4262 H   0  0  0  0  0  0  0  0  0  0  0  0
    0.7126   -3.2495   16.0924 H   0  0  0  0  0  0  0  0  0  0  0  0
   -2.0913   -4.6667   14.0771 H   0  0  0  0  0  0  0  0  0  0  0  0
   -0.7021   -5.6113   16.3020 H   0  0  0  0  0  0  0  0  0  0  0  0
   -1.8474   -4.2899   17.0452 H   0  0  0  0  0  0  0  0  0  0  0  0
   -4.2300   -4.0280   13.9958 H   0  0  0  0  0  0  0  0  0  0  0  0
   -8.6722   -5.6154   18.1516 H   0  0  0  0  0  0  0  0  0  0  0  0
   -8.3623   -5.3171   16.4202 H   0  0  0  0  0  0  0  0  0  0  0  0
   -4.7899   -4.9896   20.4129 H   0  0  0  0  0  0  0  0  0  0  0  0
  2  1  2  0
  3  1  1  0
  4  1  1  0
  6  5  2  0
  7  5  1  0
  8  1  1  0
  8  5  1  0
  9  5  1  0
 10  9  1  0
 11 10  1  0
 12 11  1  0
 13 11  1  0
 14 13  1  0
 15 13  1  0
 16 15  1  0
 17 15  1  0
 17 12  1  0
 18 17  1  0
 19 18  1  0
 20 19  2  0
 21 20  1  0
 22 21  2  0
 23 22  1  0
 24 22  1  0
 25 24  2  0
 26 25  1  0
 27 21  1  0
 27 18  1  0
 27 26  2  0
  3 28  1  0
  4 29  1  0
  7 30  1  0
 10 31  1  0
 10 32  1  0
 11 33  1  1
 13 34  1  6
 14 35  1  0
 15 36  1  6
 16 37  1  0
 17 38  1  1
 19 39  1  0
 23 40  1  0
 23 41  1  0
 25 42  1  0
M  END
$$$$
