
     RDKit          3D

 40 42  0  0  0  0  0  0  0  0999 V2000
   -1.5377    2.2831   -0.7163 O   0  0  0  0  0  0  0  0  0  0  0  0
   -1.1420    1.1408   -0.5463 C   0  0  0  0  0  0  0  0  0  0  0  0
    0.2837    0.7677   -0.3515 C   0  0  0  0  0  0  0  0  0  0  0  0
    1.2444    1.7842   -0.3877 C   0  0  0  0  0  0  0  0  0  0  0  0
    2.5986    1.4820   -0.2072 C   0  0  0  0  0  0  0  0  0  0  0  0
    3.0239    0.1617    0.0121 C   0  0  0  0  0  0  0  0  0  0  0  0
    2.0481   -0.8484    0.0452 C   0  0  0  0  0  0  0  0  0  0  0  0
    0.6914   -0.5529   -0.1339 C   0  0  0  0  0  0  0  0  0  0  0  0
    4.4493   -0.1545    0.2012 C   0  0  0  0  0  0  0  0  0  0  0  0
    5.2154    0.5089    1.1745 C   0  0  0  0  0  0  0  0  0  0  0  0
    6.5684    0.2086    1.3552 C   0  0  0  0  0  0  0  0  0  0  0  0
    7.1792   -0.7606    0.5639 C   0  0  0  0  0  0  0  0  0  0  0  0
    6.4388   -1.4297   -0.4070 C   0  0  0  0  0  0  0  0  0  0  0  0
    5.0856   -1.1291   -0.5858 C   0  0  0  0  0  0  0  0  0  0  0  0
   -1.9460    0.0492   -0.4949 O   0  0  0  0  0  0  0  0  0  0  0  0
   -3.3335    0.3128   -0.7323 C   0  0  2  0  0  0  0  0  0  0  0  0
   -3.9964    1.1649    0.3507 C   0  0  0  0  0  0  0  0  0  0  0  0
   -5.4154    0.7547    0.3354 N   0  0  0  0  0  0  0  0  0  0  0  0
   -5.5403   -0.5797   -0.4239 C   0  0  1  0  0  0  0  0  0  0  0  0
   -4.1003   -0.9980   -0.6565 C   0  0  0  0  0  0  0  0  0  0  0  0
   -6.2816   -1.6186    0.4550 C   0  0  0  0  0  0  0  0  0  0  0  0
   -6.4904   -2.7436   -0.0447 O   0  0  0  0  0  0  0  0  0  0  0  0
   -6.5487   -1.1055    1.5907 O   0  0  0  0  0  0  0  0  0  0  0  0
    0.9496    2.8177   -0.5600 H   0  0  0  0  0  0  0  0  0  0  0  0
    3.3279    2.2894   -0.2520 H   0  0  0  0  0  0  0  0  0  0  0  0
    2.3409   -1.8821    0.2249 H   0  0  0  0  0  0  0  0  0  0  0  0
   -0.0280   -1.3675   -0.0972 H   0  0  0  0  0  0  0  0  0  0  0  0
    4.7568    1.2615    1.8127 H   0  0  0  0  0  0  0  0  0  0  0  0
    7.1429    0.7302    2.1164 H   0  0  0  0  0  0  0  0  0  0  0  0
    8.2313   -0.9946    0.7040 H   0  0  0  0  0  0  0  0  0  0  0  0
    6.9133   -2.1851   -1.0281 H   0  0  0  0  0  0  0  0  0  0  0  0
    4.5301   -1.6574   -1.3582 H   0  0  0  0  0  0  0  0  0  0  0  0
   -3.4654    0.7606   -1.7265 H   0  0  0  0  0  0  0  0  0  0  0  0
   -3.5966    0.9609    1.3494 H   0  0  0  0  0  0  0  0  0  0  0  0
   -3.9534    2.2379    0.1477 H   0  0  0  0  0  0  0  0  0  0  0  0
   -5.7668    0.4569    1.2834 H   0  0  0  0  0  0  0  0  0  0  0  0
   -6.0953    1.4400   -0.0029 H   0  0  0  0  0  0  0  0  0  0  0  0
   -6.0774   -0.3574   -1.3508 H   0  0  0  0  0  0  0  0  0  0  0  0
   -3.9880   -1.5799   -1.5778 H   0  0  0  0  0  0  0  0  0  0  0  0
   -3.7162   -1.6291    0.1557 H   0  0  0  0  0  0  0  0  0  0  0  0
  1  2  2  0
  2  3  1  0
  3  4  2  0
  4  5  1  0
  5  6  2  0
  6  7  1  0
  7  8  2  0
  6  9  1  0
  9 10  2  0
 10 11  1  0
 11 12  2  0
 12 13  1  0
 13 14  2  0
  2 15  1  0
 16 15  1  0
 16 17  1  0
 17 18  1  0
 18 19  1  0
 19 20  1  0
 19 21  1  0
 21 22  1  0
 21 23  2  0
  8  3  1  0
 14  9  1  0
 20 16  1  0
  4 24  1  0
  5 25  1  0
  7 26  1  0
  8 27  1  0
 10 28  1  0
 11 29  1  0
 12 30  1  0
 13 31  1  0
 14 32  1  0
 16 33  1  6
 17 34  1  0
 17 35  1  0
 18 36  1  0
 18 37  1  0
 19 38  1  6
 20 39  1  0
 20 40  1  0
M  CHG  2  18   1  22  -1
M  END
>  <ScrubInfo>  (1) 
{"isomerGroup": 0, "isomerId": 0, "confId": 0, "nr_conformers:": 1, "nr_isomers:": 1}

$$$$

     RDKit          3D

 51 53  0  0  0  0  0  0  0  0999 V2000
    1.9427   -0.7302   -0.5583 C   0  0  0  0  0  0  0  0  0  0  0  0
    0.6658   -0.0160   -0.9183 N   0  0  0  0  0  0  0  0  0  0  0  0
    0.4286    1.2410   -0.0877 C   0  0  0  0  0  0  0  0  0  0  0  0
   -0.5531   -0.8930   -1.1066 C   0  0  0  0  0  0  0  0  0  0  0  0
    1.8986   -1.4514    0.7999 C   0  0  0  0  0  0  0  0  0  0  0  0
    3.1743   -1.3309    1.6388 C   0  0  1  0  0  0  0  0  0  0  0  0
    4.2695   -2.2682    1.1668 N   0  0  0  0  0  0  0  0  0  0  0  0
    3.7098    0.1281    1.6312 C   0  0  0  0  0  0  0  0  0  0  0  0
    4.9632    0.1079    1.4324 O   0  0  0  0  0  0  0  0  0  0  0  0
    2.8558    1.0402    1.6574 O   0  0  0  0  0  0  0  0  0  0  0  0
   -0.8277    1.9697   -0.5059 C   0  0  0  0  0  0  0  0  0  0  0  0
   -2.0900    1.4230   -0.1608 C   0  0  0  0  0  0  0  0  0  0  0  0
   -0.7486    3.1687   -1.2423 C   0  0  0  0  0  0  0  0  0  0  0  0
   -2.2018    0.1156    0.5294 C   0  0  0  0  0  0  0  0  0  0  0  0
   -3.2465    2.1263   -0.5355 C   0  0  0  0  0  0  0  0  0  0  0  0
   -1.9177    3.8398   -1.6024 C   0  0  0  0  0  0  0  0  0  0  0  0
    0.5103    3.5693   -1.6035 O   0  0  0  0  0  0  0  0  0  0  0  0
   -1.4679   -1.0195    0.0880 C   0  0  0  0  0  0  0  0  0  0  0  0
   -3.0410   -0.0216    1.6464 C   0  0  0  0  0  0  0  0  0  0  0  0
   -3.1610    3.3250   -1.2415 C   0  0  0  0  0  0  0  0  0  0  0  0
    0.6629    4.9307   -2.0017 C   0  0  0  0  0  0  0  0  0  0  0  0
   -1.6185   -2.2583    0.7467 C   0  0  0  0  0  0  0  0  0  0  0  0
   -3.1679   -1.2432    2.3032 C   0  0  0  0  0  0  0  0  0  0  0  0
   -0.8789   -3.3017    0.2496 O   0  0  0  0  0  0  0  0  0  0  0  0
   -2.4619   -2.3573    1.8551 C   0  0  0  0  0  0  0  0  0  0  0  0
   -1.2679   -4.6130    0.6589 C   0  0  0  0  0  0  0  0  0  0  0  0
    2.7437    0.0065   -0.6593 H   0  0  0  0  0  0  0  0  0  0  0  0
    2.1130   -1.4661   -1.3537 H   0  0  0  0  0  0  0  0  0  0  0  0
    0.8384    0.3866   -1.8467 H   0  0  0  0  0  0  0  0  0  0  0  0
    0.3656    0.9594    0.9682 H   0  0  0  0  0  0  0  0  0  0  0  0
    1.3198    1.8634   -0.2094 H   0  0  0  0  0  0  0  0  0  0  0  0
   -1.1154   -0.4673   -1.9487 H   0  0  0  0  0  0  0  0  0  0  0  0
   -0.1912   -1.8583   -1.4758 H   0  0  0  0  0  0  0  0  0  0  0  0
    1.0798   -1.0637    1.4143 H   0  0  0  0  0  0  0  0  0  0  0  0
    1.6748   -2.5122    0.6360 H   0  0  0  0  0  0  0  0  0  0  0  0
    2.9796   -1.6219    2.6768 H   0  0  0  0  0  0  0  0  0  0  0  0
    5.1053   -1.6241    1.2403 H   0  0  0  0  0  0  0  0  0  0  0  0
    4.4608   -3.0443    1.8061 H   0  0  0  0  0  0  0  0  0  0  0  0
    4.2557   -2.5558    0.1882 H   0  0  0  0  0  0  0  0  0  0  0  0
   -4.2354    1.7363   -0.2968 H   0  0  0  0  0  0  0  0  0  0  0  0
   -1.8981    4.7614   -2.1770 H   0  0  0  0  0  0  0  0  0  0  0  0
   -3.6009    0.8328    2.0266 H   0  0  0  0  0  0  0  0  0  0  0  0
   -4.0695    3.8528   -1.5259 H   0  0  0  0  0  0  0  0  0  0  0  0
    0.2391    5.6151   -1.2590 H   0  0  0  0  0  0  0  0  0  0  0  0
    1.7350    5.1375   -2.0740 H   0  0  0  0  0  0  0  0  0  0  0  0
    0.2238    5.0964   -2.9905 H   0  0  0  0  0  0  0  0  0  0  0  0
   -3.8213   -1.3255    3.1700 H   0  0  0  0  0  0  0  0  0  0  0  0
   -2.5901   -3.2861    2.4035 H   0  0  0  0  0  0  0  0  0  0  0  0
   -2.3336   -4.7893    0.4787 H   0  0  0  0  0  0  0  0  0  0  0  0
   -1.0063   -4.7850    1.7078 H   0  0  0  0  0  0  0  0  0  0  0  0
   -0.7039   -5.3293    0.0539 H   0  0  0  0  0  0  0  0  0  0  0  0
  1  2  1  0
  2  3  1  0
  2  4  1  0
  5  1  1  0
  6  5  1  0
  6  7  1  0
  6  8  1  0
  8  9  2  0
  8 10  1  0
  3 11  1  0
 11 12  2  0
 13 11  1  0
 12 14  1  0
 12 15  1  0
 16 13  2  0
 13 17  1  0
 14 18  2  0
 19 14  1  0
 15 20  2  0
 20 16  1  0
 17 21  1  0
 18  4  1  0
 18 22  1  0
 23 19  2  0
 22 24  1  0
 22 25  2  0
 25 23  1  0
 24 26  1  0
  1 27  1  0
  1 28  1  0
  2 29  1  0
  3 30  1  0
  3 31  1  0
  4 32  1  0
  4 33  1  0
  5 34  1  0
  5 35  1  0
  6 36  1  1
  7 37  1  0
  7 38  1  0
  7 39  1  0
 15 40  1  0
 16 41  1  0
 19 42  1  0
 20 43  1  0
 21 44  1  0
 21 45  1  0
 21 46  1  0
 23 47  1  0
 25 48  1  0
 26 49  1  0
 26 50  1  0
 26 51  1  0
M  CHG  3   2   1   7   1  10  -1
M  END
>  <ScrubInfo>  (2) 
{"isomerGroup": 1, "isomerId": 0, "confId": 0, "nr_conformers:": 1, "nr_isomers:": 1}

$$$$

     RDKit          3D

 77 81  0  0  0  0  0  0  0  0999 V2000
    0.1761   -1.5399    0.3843 C   0  0  0  0  0  0  0  0  0  0  0  0
   -0.2964   -1.1792   -1.0098 N   0  0  0  0  0  0  0  0  0  0  0  0
   -1.6038   -0.3913   -0.9847 C   0  0  0  0  0  0  0  0  0  0  0  0
    0.8043   -0.4481   -1.7638 C   0  0  0  0  0  0  0  0  0  0  0  0
   -0.7596   -2.5513    1.0691 C   0  0  0  0  0  0  0  0  0  0  0  0
   -0.3146   -2.9597    2.4865 C   0  0  1  0  0  0  0  0  0  0  0  0
    0.7440   -4.0474    2.4383 N   0  0  0  0  0  0  0  0  0  0  0  0
    0.2892   -1.6962    3.1538 C   0  0  0  0  0  0  0  0  0  0  0  0
   -0.4861   -0.7457    3.3700 O   0  0  0  0  0  0  0  0  0  0  0  0
    1.5532   -1.8266    3.2170 O   0  0  0  0  0  0  0  0  0  0  0  0
   -1.9506    0.3115   -2.2762 C   0  0  0  0  0  0  0  0  0  0  0  0
   -3.0332   -0.1193   -3.0617 C   0  0  0  0  0  0  0  0  0  0  0  0
   -1.1955    1.4409   -2.6915 C   0  0  0  0  0  0  0  0  0  0  0  0
   -3.7464   -1.2249   -2.6756 O   0  0  0  0  0  0  0  0  0  0  0  0
   -3.3439    0.5128   -4.2654 C   0  0  0  0  0  0  0  0  0  0  0  0
   -0.0418    1.9199   -1.8942 C   0  0  0  0  0  0  0  0  0  0  0  0
   -1.5436    2.0780   -3.8958 C   0  0  0  0  0  0  0  0  0  0  0  0
   -5.0850   -0.8942   -2.2522 C   0  0  0  0  0  0  0  0  0  0  0  0
   -2.6046    1.6162   -4.6767 C   0  0  0  0  0  0  0  0  0  0  0  0
    0.9264    1.0082   -1.4021 C   0  0  0  0  0  0  0  0  0  0  0  0
    0.0870    3.2764   -1.5592 C   0  0  0  0  0  0  0  0  0  0  0  0
   -5.0958   -0.7819   -0.7467 C   0  0  0  0  0  0  0  0  0  0  0  0
    1.9435    1.4500   -0.5360 C   0  0  0  0  0  0  0  0  0  0  0  0
    1.1309    3.7150   -0.7454 C   0  0  0  0  0  0  0  0  0  0  0  0
   -5.1614   -1.9351    0.0516 C   0  0  0  0  0  0  0  0  0  0  0  0
   -4.9488    0.4674   -0.1294 C   0  0  0  0  0  0  0  0  0  0  0  0
    2.0532    2.8054   -0.2306 C   0  0  0  0  0  0  0  0  0  0  0  0
    2.7968    0.4879   -0.0600 O   0  0  0  0  0  0  0  0  0  0  0  0
   -5.0820   -1.8470    1.4468 C   0  0  0  0  0  0  0  0  0  0  0  0
   -4.8585    0.5609    1.2575 C   0  0  0  0  0  0  0  0  0  0  0  0
    3.3135    0.6825    1.2699 C   0  0  0  0  0  0  0  0  0  0  0  0
   -5.1482   -3.0737    2.3082 C   0  0  0  0  0  0  0  0  0  0  0  0
   -4.9180   -0.5910    2.0409 C   0  0  0  0  0  0  0  0  0  0  0  0
    4.6853    1.3168    1.3049 C   0  0  0  0  0  0  0  0  0  0  0  0
    5.5060    1.4039    0.1694 C   0  0  0  0  0  0  0  0  0  0  0  0
    5.1711    1.8040    2.5268 C   0  0  0  0  0  0  0  0  0  0  0  0
    6.7802    1.9843    0.2429 C   0  0  0  0  0  0  0  0  0  0  0  0
    6.4334    2.3906    2.6066 C   0  0  0  0  0  0  0  0  0  0  0  0
    7.6324    2.1206   -0.9861 C   0  0  0  0  0  0  0  0  0  0  0  0
    7.2307    2.4886    1.4675 C   0  0  0  0  0  0  0  0  0  0  0  0
    1.1703   -1.9890    0.2781 H   0  0  0  0  0  0  0  0  0  0  0  0
    0.2611   -0.5958    0.9281 H   0  0  0  0  0  0  0  0  0  0  0  0
   -0.4902   -2.0260   -1.5495 H   0  0  0  0  0  0  0  0  0  0  0  0
   -2.3623   -1.1263   -0.7162 H   0  0  0  0  0  0  0  0  0  0  0  0
   -1.5542    0.3328   -0.1614 H   0  0  0  0  0  0  0  0  0  0  0  0
    0.5881   -0.5673   -2.8330 H   0  0  0  0  0  0  0  0  0  0  0  0
    1.7346   -1.0073   -1.6117 H   0  0  0  0  0  0  0  0  0  0  0  0
   -0.8788   -3.4414    0.4398 H   0  0  0  0  0  0  0  0  0  0  0  0
   -1.7558   -2.1054    1.1632 H   0  0  0  0  0  0  0  0  0  0  0  0
   -1.1474   -3.3717    3.0640 H   0  0  0  0  0  0  0  0  0  0  0  0
    0.6862   -4.6415    3.2739 H   0  0  0  0  0  0  0  0  0  0  0  0
    1.6271   -3.5002    2.6034 H   0  0  0  0  0  0  0  0  0  0  0  0
    0.8262   -4.6139    1.5954 H   0  0  0  0  0  0  0  0  0  0  0  0
   -4.1566    0.1488   -4.8896 H   0  0  0  0  0  0  0  0  0  0  0  0
   -0.9738    2.9363   -4.2515 H   0  0  0  0  0  0  0  0  0  0  0  0
   -5.7408   -1.7140   -2.5667 H   0  0  0  0  0  0  0  0  0  0  0  0
   -5.4785    0.0167   -2.7204 H   0  0  0  0  0  0  0  0  0  0  0  0
   -2.8474    2.1154   -5.6123 H   0  0  0  0  0  0  0  0  0  0  0  0
   -0.6379    4.0080   -1.9105 H   0  0  0  0  0  0  0  0  0  0  0  0
    1.2195    4.7709   -0.4974 H   0  0  0  0  0  0  0  0  0  0  0  0
   -5.2741   -2.9098   -0.4205 H   0  0  0  0  0  0  0  0  0  0  0  0
   -4.8974    1.3764   -0.7247 H   0  0  0  0  0  0  0  0  0  0  0  0
    2.8527    3.1869    0.3989 H   0  0  0  0  0  0  0  0  0  0  0  0
   -4.7466    1.5321    1.7341 H   0  0  0  0  0  0  0  0  0  0  0  0
    3.4063   -0.3195    1.7040 H   0  0  0  0  0  0  0  0  0  0  0  0
    2.5984    1.2337    1.8951 H   0  0  0  0  0  0  0  0  0  0  0  0
   -5.4585   -3.9525    1.7340 H   0  0  0  0  0  0  0  0  0  0  0  0
   -5.8740   -2.9353    3.1152 H   0  0  0  0  0  0  0  0  0  0  0  0
   -4.1635   -3.2767    2.7409 H   0  0  0  0  0  0  0  0  0  0  0  0
   -4.8533   -0.4973    3.1237 H   0  0  0  0  0  0  0  0  0  0  0  0
    5.1534    1.0234   -0.7867 H   0  0  0  0  0  0  0  0  0  0  0  0
    4.5668    1.7288    3.4300 H   0  0  0  0  0  0  0  0  0  0  0  0
    6.7966    2.7729    3.5578 H   0  0  0  0  0  0  0  0  0  0  0  0
    7.5092    3.1216   -1.4139 H   0  0  0  0  0  0  0  0  0  0  0  0
    8.6886    1.9614   -0.7429 H   0  0  0  0  0  0  0  0  0  0  0  0
    7.3570    1.3784   -1.7433 H   0  0  0  0  0  0  0  0  0  0  0  0
    8.2098    2.9570    1.5425 H   0  0  0  0  0  0  0  0  0  0  0  0
  1  2  1  0
  2  3  1  0
  2  4  1  0
  5  1  1  0
  6  5  1  0
  6  7  1  0
  6  8  1  0
  8  9  2  0
  8 10  1  0
  3 11  1  0
 11 12  2  0
 11 13  1  0
 12 14  1  0
 12 15  1  0
 13 16  1  0
 13 17  2  0
 14 18  1  0
 15 19  2  0
 16 20  2  0
 16 21  1  0
 19 17  1  0
 18 22  1  0
 20  4  1  0
 20 23  1  0
 21 24  2  0
 22 25  2  0
 26 22  1  0
 27 23  2  0
 23 28  1  0
 24 27  1  0
 25 29  1  0
 30 26  2  0
 28 31  1  0
 29 32  1  0
 29 33  2  0
 33 30  1  0
 31 34  1  0
 34 35  2  0
 36 34  1  0
 35 37  1  0
 38 36  2  0
 37 39  1  0
 37 40  2  0
 40 38  1  0
  1 41  1  0
  1 42  1  0
  2 43  1  0
  3 44  1  0
  3 45  1  0
  4 46  1  0
  4 47  1  0
  5 48  1  0
  5 49  1  0
  6 50  1  1
  7 51  1  0
  7 52  1  0
  7 53  1  0
 15 54  1  0
 17 55  1  0
 18 56  1  0
 18 57  1  0
 19 58  1  0
 21 59  1  0
 24 60  1  0
 25 61  1  0
 26 62  1  0
 27 63  1  0
 30 64  1  0
 31 65  1  0
 31 66  1  0
 32 67  1  0
 32 68  1  0
 32 69  1  0
 33 70  1  0
 35 71  1  0
 36 72  1  0
 38 73  1  0
 39 74  1  0
 39 75  1  0
 39 76  1  0
 40 77  1  0
M  CHG  3   2   1   7   1  10  -1
M  END
>  <ScrubInfo>  (3) 
{"isomerGroup": 2, "isomerId": 0, "confId": 0, "nr_conformers:": 1, "nr_isomers:": 1}

$$$$

     RDKit          3D

 79 82  0  0  0  0  0  0  0  0999 V2000
    0.3118   -2.3445    0.1570 C   0  0  0  0  0  0  0  0  0  0  0  0
    1.0825   -1.1267   -0.3235 N   0  0  0  0  0  0  0  0  0  0  0  0
    2.3854   -0.9390    0.4115 C   0  0  0  0  0  0  0  0  0  0  0  0
    1.2891   -1.0939   -1.8177 C   0  0  0  0  0  0  0  0  0  0  0  0
   -1.0549   -1.9152    0.7018 C   0  0  0  0  0  0  0  0  0  0  0  0
   -1.7642   -3.0098    1.4980 C   0  0  1  0  0  0  0  0  0  0  0  0
   -3.1768   -2.5486    1.8130 N   0  0  0  0  0  0  0  0  0  0  0  0
   -1.8321   -4.3261    0.6775 C   0  0  0  0  0  0  0  0  0  0  0  0
   -0.7379   -4.8730    0.4203 O   0  0  0  0  0  0  0  0  0  0  0  0
   -3.0389   -4.5878    0.3877 O   0  0  0  0  0  0  0  0  0  0  0  0
    2.1962   -0.4476    1.8224 C   0  0  0  0  0  0  0  0  0  0  0  0
    1.6644    0.8265    2.0731 C   0  0  0  0  0  0  0  0  0  0  0  0
    2.5538   -1.2526    2.9137 C   0  0  0  0  0  0  0  0  0  0  0  0
    1.2650    1.5824    1.0030 O   0  0  0  0  0  0  0  0  0  0  0  0
    1.4508    1.2735    3.3774 C   0  0  0  0  0  0  0  0  0  0  0  0
    2.3632   -0.7971    4.2199 C   0  0  0  0  0  0  0  0  0  0  0  0
    2.0116    2.8060    0.8742 C   0  0  0  0  0  0  0  0  0  0  0  0
    1.8094    0.4612    4.4510 C   0  0  0  0  0  0  0  0  0  0  0  0
    2.8439    2.7025   -0.3787 C   0  0  0  0  0  0  0  0  0  0  0  0
    2.2518    2.8481   -1.6401 C   0  0  0  0  0  0  0  0  0  0  0  0
    4.2140    2.4084   -0.2987 C   0  0  0  0  0  0  0  0  0  0  0  0
    3.0127    2.6981   -2.7986 C   0  0  0  0  0  0  0  0  0  0  0  0
    4.9874    2.2698   -1.4587 C   0  0  0  0  0  0  0  0  0  0  0  0
    4.3724    2.4024   -2.7084 C   0  0  0  0  0  0  0  0  0  0  0  0
    6.4489    1.9397   -1.3639 C   0  0  0  0  0  0  0  0  0  0  0  0
    0.0231   -1.0549   -2.6392 C   0  0  0  0  0  0  0  0  0  0  0  0
   -0.9753   -0.0782   -2.4357 C   0  0  0  0  0  0  0  0  0  0  0  0
   -0.1338   -2.0007   -3.6695 C   0  0  0  0  0  0  0  0  0  0  0  0
   -0.7643    0.7728   -1.3811 O   0  0  0  0  0  0  0  0  0  0  0  0
   -2.0934   -0.0649   -3.2740 C   0  0  0  0  0  0  0  0  0  0  0  0
   -1.2605   -1.9824   -4.4856 C   0  0  0  0  0  0  0  0  0  0  0  0
   -1.7094    1.8142   -1.1038 C   0  0  0  0  0  0  0  0  0  0  0  0
   -2.2351   -1.0128   -4.2909 C   0  0  0  0  0  0  0  0  0  0  0  0
   -2.6480    1.4160    0.0136 C   0  0  0  0  0  0  0  0  0  0  0  0
   -2.2744    1.6057    1.3516 C   0  0  0  0  0  0  0  0  0  0  0  0
   -3.9164    0.8814   -0.2581 C   0  0  0  0  0  0  0  0  0  0  0  0
   -3.1549    1.2961    2.3893 C   0  0  0  0  0  0  0  0  0  0  0  0
   -4.8057    0.5593    0.7787 C   0  0  0  0  0  0  0  0  0  0  0  0
   -4.4214    0.7886    2.1040 C   0  0  0  0  0  0  0  0  0  0  0  0
   -6.1891    0.0658    0.4620 C   0  0  0  0  0  0  0  0  0  0  0  0
    0.9045   -2.8379    0.9341 H   0  0  0  0  0  0  0  0  0  0  0  0
    0.2246   -3.0221   -0.6961 H   0  0  0  0  0  0  0  0  0  0  0  0
    0.5357   -0.2693   -0.1442 H   0  0  0  0  0  0  0  0  0  0  0  0
    2.9905   -0.2161   -0.1430 H   0  0  0  0  0  0  0  0  0  0  0  0
    2.9215   -1.8953    0.3759 H   0  0  0  0  0  0  0  0  0  0  0  0
    1.8735   -0.1967   -2.0503 H   0  0  0  0  0  0  0  0  0  0  0  0
    1.9046   -1.9674   -2.0647 H   0  0  0  0  0  0  0  0  0  0  0  0
   -1.6896   -1.6073   -0.1360 H   0  0  0  0  0  0  0  0  0  0  0  0
   -0.9357   -1.0426    1.3542 H   0  0  0  0  0  0  0  0  0  0  0  0
   -1.2756   -3.1879    2.4615 H   0  0  0  0  0  0  0  0  0  0  0  0
   -3.4118   -1.5914    1.5409 H   0  0  0  0  0  0  0  0  0  0  0  0
   -3.7370   -3.2002    1.2020 H   0  0  0  0  0  0  0  0  0  0  0  0
   -3.4715   -2.7753    2.7650 H   0  0  0  0  0  0  0  0  0  0  0  0
    2.9878   -2.2407    2.7648 H   0  0  0  0  0  0  0  0  0  0  0  0
    1.0055    2.2464    3.5687 H   0  0  0  0  0  0  0  0  0  0  0  0
    2.6494   -1.4245    5.0628 H   0  0  0  0  0  0  0  0  0  0  0  0
    1.2943    3.6292    0.7778 H   0  0  0  0  0  0  0  0  0  0  0  0
    2.6440    3.0311    1.7429 H   0  0  0  0  0  0  0  0  0  0  0  0
    1.6602    0.8086    5.4716 H   0  0  0  0  0  0  0  0  0  0  0  0
    1.1946    3.0850   -1.7302 H   0  0  0  0  0  0  0  0  0  0  0  0
    4.6884    2.2930    0.6753 H   0  0  0  0  0  0  0  0  0  0  0  0
    2.5504    2.8226   -3.7755 H   0  0  0  0  0  0  0  0  0  0  0  0
    4.9555    2.2957   -3.6217 H   0  0  0  0  0  0  0  0  0  0  0  0
    6.5849    0.8544   -1.3308 H   0  0  0  0  0  0  0  0  0  0  0  0
    6.9972    2.3394   -2.2235 H   0  0  0  0  0  0  0  0  0  0  0  0
    6.8905    2.3804   -0.4640 H   0  0  0  0  0  0  0  0  0  0  0  0
    0.6198   -2.7667   -3.8495 H   0  0  0  0  0  0  0  0  0  0  0  0
   -2.8911    0.6625   -3.1814 H   0  0  0  0  0  0  0  0  0  0  0  0
   -1.3773   -2.7216   -5.2760 H   0  0  0  0  0  0  0  0  0  0  0  0
   -1.1234    2.6778   -0.7645 H   0  0  0  0  0  0  0  0  0  0  0  0
   -2.2427    2.1836   -1.9853 H   0  0  0  0  0  0  0  0  0  0  0  0
   -3.1133   -0.9947   -4.9338 H   0  0  0  0  0  0  0  0  0  0  0  0
   -1.3068    2.0382    1.5958 H   0  0  0  0  0  0  0  0  0  0  0  0
   -4.2422    0.7471   -1.2881 H   0  0  0  0  0  0  0  0  0  0  0  0
   -2.8679    1.4914    3.4209 H   0  0  0  0  0  0  0  0  0  0  0  0
   -5.1183    0.6014    2.9200 H   0  0  0  0  0  0  0  0  0  0  0  0
   -6.1861   -0.5388   -0.4510 H   0  0  0  0  0  0  0  0  0  0  0  0
   -6.8671    0.9138    0.3255 H   0  0  0  0  0  0  0  0  0  0  0  0
   -6.5708   -0.5679    1.2694 H   0  0  0  0  0  0  0  0  0  0  0  0
  1  2  1  0
  2  3  1  0
  2  4  1  0
  5  1  1  0
  6  5  1  0
  6  7  1  0
  6  8  1  0
  8  9  2  0
  8 10  1  0
  3 11  1  0
 11 12  1  0
 13 11  2  0
 12 14  1  0
 12 15  2  0
 16 13  1  0
 14 17  1  0
 15 18  1  0
 18 16  2  0
 17 19  1  0
 19 20  2  0
 21 19  1  0
 20 22  1  0
 23 21  2  0
 22 24  2  0
 24 23  1  0
 23 25  1  0
  4 26  1  0
 26 27  1  0
 28 26  2  0
 27 29  1  0
 27 30  2  0
 31 28  1  0
 29 32  1  0
 30 33  1  0
 33 31  2  0
 32 34  1  0
 34 35  2  0
 36 34  1  0
 35 37  1  0
 38 36  2  0
 37 39  2  0
 39 38  1  0
 38 40  1  0
  1 41  1  0
  1 42  1  0
  2 43  1  0
  3 44  1  0
  3 45  1  0
  4 46  1  0
  4 47  1  0
  5 48  1  0
  5 49  1  0
  6 50  1  1
  7 51  1  0
  7 52  1  0
  7 53  1  0
 13 54  1  0
 15 55  1  0
 16 56  1  0
 17 57  1  0
 17 58  1  0
 18 59  1  0
 20 60  1  0
 21 61  1  0
 22 62  1  0
 24 63  1  0
 25 64  1  0
 25 65  1  0
 25 66  1  0
 28 67  1  0
 30 68  1  0
 31 69  1  0
 32 70  1  0
 32 71  1  0
 33 72  1  0
 35 73  1  0
 36 74  1  0
 37 75  1  0
 39 76  1  0
 40 77  1  0
 40 78  1  0
 40 79  1  0
M  CHG  3   2   1   7   1  10  -1
M  END
>  <ScrubInfo>  (4) 
{"isomerGroup": 3, "isomerId": 0, "confId": 0, "nr_conformers:": 1, "nr_isomers:": 1}

$$$$
