


 44 48  0  0  0  0  0  0  0  0999 V2000
   -1.5211  -30.3908   -8.4130 C   0  0  0  0  0  0  0  0  0  0  0  0
   -0.3966  -30.3495   -7.7562 N   0  0  0  0  0  0  0  0  0  0  0  0
   -0.3255  -27.5087   -8.5887 O   0  0  0  0  0  0  0  0  0  0  0  0
   -1.6028  -27.8598   -8.6983 C   0  0  0  0  0  0  0  0  0  0  0  0
   -2.5801  -26.9255   -8.9249 N   0  0  0  0  0  0  0  0  0  0  0  0
   -3.8122  -27.5244   -9.0194 C   0  0  0  0  0  0  0  0  0  0  0  0
   -5.0744  -26.9523   -9.2429 C   0  0  0  0  0  0  0  0  0  0  0  0
   -6.1847  -27.8106   -9.2954 C   0  0  0  0  0  0  0  0  0  0  0  0
   -6.0161  -29.1882   -9.1281 C   0  0  0  0  0  0  0  0  0  0  0  0
   -4.7457  -29.7359   -8.9066 C   0  0  0  0  0  0  0  0  0  0  0  0
   -3.6133  -28.8938   -8.8511 C   0  0  0  0  0  0  0  0  0  0  0  0
   -2.2030  -29.1104   -8.6374 C   0  0  0  0  0  0  0  0  0  0  0  0
   -0.2245  -26.5474   -8.6952 H   0  0  0  0  0  0  0  0  0  0  0  0
   -2.4315  -25.9317   -9.0187 H   0  0  0  0  0  0  0  0  0  0  0  0
   -7.5664  -27.3026   -9.5250 C   0  0  0  0  0  0  0  0  0  0  0  0
   -8.1820  -26.6341   -8.7094 O   0  0  0  0  0  0  0  0  0  0  0  0
   -8.0226  -27.6854  -10.7439 O   0  0  0  0  0  0  0  0  0  0  0  0
   -7.7824  -29.0608  -11.0470 C   0  0  0  0  0  0  0  0  0  0  0  0
    0.3573  -31.5022   -7.5294 C   0  0  0  0  0  0  0  0  0  0  0  0
    1.6778  -31.5671   -7.9601 C   0  0  0  0  0  0  0  0  0  0  0  0
    2.4261  -32.7405   -7.7977 C   0  0  0  0  0  0  0  0  0  0  0  0
    1.8643  -33.8949   -7.2230 C   0  0  0  0  0  0  0  0  0  0  0  0
    0.5301  -33.8106   -6.7971 C   0  0  0  0  0  0  0  0  0  0  0  0
   -0.2152  -32.6342   -6.9578 C   0  0  0  0  0  0  0  0  0  0  0  0
    2.6436  -35.1083   -7.0770 N   0  0  0  0  0  0  0  0  0  0  0  0
    4.0378  -34.9394   -6.6472 C   0  0  0  0  0  0  0  0  0  0  0  0
    2.1384  -36.3444   -7.4694 C   0  0  0  0  0  0  0  0  0  0  0  0
    1.0413  -36.5720   -7.9944 O   0  0  0  0  0  0  0  0  0  0  0  0
    3.0182  -37.5933   -7.2886 C   0  0  0  0  0  0  0  0  0  0  0  0
    3.1703  -38.3092   -8.6621 N   0  0  0  0  0  0  0  0  0  0  0  0
    3.3355  -37.4084   -9.8644 C   0  0  0  0  0  0  0  0  0  0  0  0
    4.8087  -36.9770  -10.0600 C   0  0  0  0  0  0  0  0  0  0  0  0
    5.7378  -38.1902  -10.0969 N   0  0  0  0  0  0  0  0  0  0  0  0
    7.1808  -37.7774  -10.3108 C   0  0  0  0  0  0  0  0  0  0  0  0
    5.5893  -39.0798   -8.8631 C   0  0  0  0  0  0  0  0  0  0  0  0
    4.1162  -39.5046   -8.6470 C   0  0  0  0  0  0  0  0  0  0  0  0
    2.2266  -38.7520   -8.7419 H   0  0  0  0  0  0  0  0  0  0  0  0
    5.5019  -38.7538  -10.9300 H   0  0  0  0  0  0  0  0  0  0  0  0
   -2.1378  -31.6264   -8.9574 C   0  0  0  0  0  0  0  0  0  0  0  0
   -1.6824  -32.1577  -10.1680 C   0  0  0  0  0  0  0  0  0  0  0  0
   -2.2742  -33.3137  -10.6769 C   0  0  0  0  0  0  0  0  0  0  0  0
   -3.3153  -33.9303   -9.9794 C   0  0  0  0  0  0  0  0  0  0  0  0
   -3.7679  -33.3960   -8.7708 C   0  0  0  0  0  0  0  0  0  0  0  0
   -3.1803  -32.2407   -8.2555 C   0  0  0  0  0  0  0  0  0  0  0  0
  3  4  1  0
  4  5  1  0
  5  6  1  0
  6  7  2  0
  7  8  1  0
  8 15  1  0
 15 16  2  0
 15 17  1  0
 17 18  1  0
  8  9  2  0
  9 10  1  0
 10 11  2  0
 11 12  1  0
 12  1  1  0
  1  2  2  0
  2 19  1  0
 19 20  2  0
 20 21  1  0
 21 22  2  0
 22 25  1  0
 25 26  1  0
 25 27  1  0
 27 28  2  0
 27 29  1  0
 29 30  1  0
 30 31  1  0
 31 32  1  0
 32 33  1  0
 33 34  1  0
 33 35  1  0
 35 36  1  0
 22 23  1  0
 23 24  2  0
  1 39  1  0
 39 40  2  0
 40 41  1  0
 41 42  2  0
 42 43  1  0
 43 44  2  0
 12  4  2  0
 24 19  1  0
 44 39  1  0
 11  6  1  0
 36 30  1  0
  3 13  1  0
  5 14  1  0
 30 37  1  0
 33 38  1  0
M  CHG 1  30   1
M  CHG 1  33   1
M  END
> <ScrubInfo>
{"isomerGroup": 0, "isomerId": 0, "confId": 0, "nr_conformers:": 1, "nr_isomers:": 1}

> <minimizedAffinity>
-8.19861

$$$$



 44 48  0  0  0  0  0  0  0  0999 V2000
   -3.8517  -30.5622   -8.9365 C   0  0  0  0  0  0  0  0  0  0  0  0
   -2.6661  -30.2272   -8.5125 N   0  0  0  0  0  0  0  0  0  0  0  0
   -6.7304  -30.6510  -10.1498 O   0  0  0  0  0  0  0  0  0  0  0  0
   -6.0862  -29.5879   -9.6791 C   0  0  0  0  0  0  0  0  0  0  0  0
   -6.6706  -28.3478   -9.6725 N   0  0  0  0  0  0  0  0  0  0  0  0
   -5.8250  -27.4151   -9.1243 C   0  0  0  0  0  0  0  0  0  0  0  0
   -6.0142  -26.0387   -8.9237 C   0  0  0  0  0  0  0  0  0  0  0  0
   -4.9690  -25.3114   -8.3314 C   0  0  0  0  0  0  0  0  0  0  0  0
   -3.7860  -25.9572   -7.9604 C   0  0  0  0  0  0  0  0  0  0  0  0
   -3.6208  -27.3326   -8.1705 C   0  0  0  0  0  0  0  0  0  0  0  0
   -4.6579  -28.0862   -8.7630 C   0  0  0  0  0  0  0  0  0  0  0  0
   -4.8186  -29.4738   -9.1241 C   0  0  0  0  0  0  0  0  0  0  0  0
   -7.6191  -30.4041  -10.4576 H   0  0  0  0  0  0  0  0  0  0  0  0
   -7.5961  -28.1333  -10.0133 H   0  0  0  0  0  0  0  0  0  0  0  0
   -5.0697  -23.8466   -8.0780 C   0  0  0  0  0  0  0  0  0  0  0  0
   -5.8828  -23.3500   -7.3142 O   0  0  0  0  0  0  0  0  0  0  0  0
   -4.1463  -23.1687   -8.8047 O   0  0  0  0  0  0  0  0  0  0  0  0
   -4.4294  -23.1238  -10.2045 C   0  0  0  0  0  0  0  0  0  0  0  0
   -1.6567  -31.1769   -8.3462 C   0  0  0  0  0  0  0  0  0  0  0  0
   -1.4438  -31.7565   -7.1004 C   0  0  0  0  0  0  0  0  0  0  0  0
   -0.3930  -32.6621   -6.9032 C   0  0  0  0  0  0  0  0  0  0  0  0
    0.4943  -32.9936   -7.9430 C   0  0  0  0  0  0  0  0  0  0  0  0
    0.2647  -32.3967   -9.1918 C   0  0  0  0  0  0  0  0  0  0  0  0
   -0.7894  -31.4934   -9.3871 C   0  0  0  0  0  0  0  0  0  0  0  0
    1.5884  -33.9182   -7.7214 N   0  0  0  0  0  0  0  0  0  0  0  0
    2.9144  -33.3212   -7.5154 C   0  0  0  0  0  0  0  0  0  0  0  0
    1.4113  -35.2927   -7.8493 C   0  0  0  0  0  0  0  0  0  0  0  0
    0.3773  -35.8866   -8.1798 O   0  0  0  0  0  0  0  0  0  0  0  0
    2.6146  -36.2188   -7.6018 C   0  0  0  0  0  0  0  0  0  0  0  0
    3.4880  -36.2697   -8.8889 N   0  0  0  0  0  0  0  0  0  0  0  0
    4.9783  -36.4014   -8.6738 C   0  0  0  0  0  0  0  0  0  0  0  0
    5.4006  -37.8763   -8.4717 C   0  0  0  0  0  0  0  0  0  0  0  0
    4.8864  -38.7576   -9.6097 N   0  0  0  0  0  0  0  0  0  0  0  0
    5.3152  -40.2008   -9.4309 C   0  0  0  0  0  0  0  0  0  0  0  0
    3.3744  -38.6447   -9.8011 C   0  0  0  0  0  0  0  0  0  0  0  0
    2.9371  -37.1713   -9.9878 C   0  0  0  0  0  0  0  0  0  0  0  0
    3.3190  -35.3077   -9.2617 H   0  0  0  0  0  0  0  0  0  0  0  0
    5.3448  -38.4563  -10.4853 H   0  0  0  0  0  0  0  0  0  0  0  0
   -4.2754  -31.9486   -9.2558 C   0  0  0  0  0  0  0  0  0  0  0  0
   -3.4715  -32.7533  -10.0691 C   0  0  0  0  0  0  0  0  0  0  0  0
   -3.8822  -34.0514  -10.3719 C   0  0  0  0  0  0  0  0  0  0  0  0
   -5.0896  -34.5378   -9.8655 C   0  0  0  0  0  0  0  0  0  0  0  0
   -5.8901  -33.7306   -9.0541 C   0  0  0  0  0  0  0  0  0  0  0  0
   -5.4855  -32.4317   -8.7466 C   0  0  0  0  0  0  0  0  0  0  0  0
  3  4  1  0
  4  5  1  0
  5  6  1  0
  6  7  2  0
  7  8  1  0
  8 15  1  0
 15 16  2  0
 15 17  1  0
 17 18  1  0
  8  9  2  0
  9 10  1  0
 10 11  2  0
 11 12  1  0
 12  1  1  0
  1  2  2  0
  2 19  1  0
 19 20  2  0
 20 21  1  0
 21 22  2  0
 22 25  1  0
 25 26  1  0
 25 27  1  0
 27 28  2  0
 27 29  1  0
 29 30  1  0
 30 31  1  0
 31 32  1  0
 32 33  1  0
 33 34  1  0
 33 35  1  0
 35 36  1  0
 22 23  1  0
 23 24  2  0
  1 39  1  0
 39 40  2  0
 40 41  1  0
 41 42  2  0
 42 43  1  0
 43 44  2  0
 12  4  2  0
 24 19  1  0
 44 39  1  0
 11  6  1  0
 36 30  1  0
  3 13  1  0
  5 14  1  0
 30 37  1  0
 33 38  1  0
M  CHG 1  30   1
M  CHG 1  33   1
M  END
> <ScrubInfo>
{"isomerGroup": 0, "isomerId": 0, "confId": 0, "nr_conformers:": 1, "nr_isomers:": 1}

> <minimizedAffinity>
-8.17210

$$$$



 44 48  0  0  0  0  0  0  0  0999 V2000
   -3.7746  -30.5391   -8.8228 C   0  0  0  0  0  0  0  0  0  0  0  0
   -2.5566  -30.3193   -8.4154 N   0  0  0  0  0  0  0  0  0  0  0  0
   -6.8432  -30.4286   -9.4041 O   0  0  0  0  0  0  0  0  0  0  0  0
   -6.0327  -29.4054   -9.1534 C   0  0  0  0  0  0  0  0  0  0  0  0
   -6.5037  -28.1186   -9.1134 N   0  0  0  0  0  0  0  0  0  0  0  0
   -5.4907  -27.2393   -8.8196 C   0  0  0  0  0  0  0  0  0  0  0  0
   -5.5248  -25.8428   -8.6819 C   0  0  0  0  0  0  0  0  0  0  0  0
   -4.3241  -25.1837   -8.3718 C   0  0  0  0  0  0  0  0  0  0  0  0
   -3.1435  -25.9143   -8.2094 C   0  0  0  0  0  0  0  0  0  0  0  0
   -3.1346  -27.3082   -8.3514 C   0  0  0  0  0  0  0  0  0  0  0  0
   -4.3295  -27.9942   -8.6615 C   0  0  0  0  0  0  0  0  0  0  0  0
   -4.6712  -29.3784   -8.8824 C   0  0  0  0  0  0  0  0  0  0  0  0
   -7.7550  -30.1182   -9.5377 H   0  0  0  0  0  0  0  0  0  0  0  0
   -7.4608  -27.8387   -9.2694 H   0  0  0  0  0  0  0  0  0  0  0  0
   -4.2540  -23.7046   -8.2072 C   0  0  0  0  0  0  0  0  0  0  0  0
   -4.6163  -23.1218   -7.1971 O   0  0  0  0  0  0  0  0  0  0  0  0
   -3.7406  -23.1212   -9.3192 O   0  0  0  0  0  0  0  0  0  0  0  0
   -4.6078  -23.1724  -10.4536 C   0  0  0  0  0  0  0  0  0  0  0  0
   -1.6089  -31.3430   -8.3668 C   0  0  0  0  0  0  0  0  0  0  0  0
   -1.2785  -31.9294   -7.1502 C   0  0  0  0  0  0  0  0  0  0  0  0
   -0.2824  -32.9122   -7.0771 C   0  0  0  0  0  0  0  0  0  0  0  0
    0.4328  -33.3178   -8.2183 C   0  0  0  0  0  0  0  0  0  0  0  0
    0.0868  -32.7128   -9.4361 C   0  0  0  0  0  0  0  0  0  0  0  0
   -0.9124  -31.7321   -9.5068 C   0  0  0  0  0  0  0  0  0  0  0  0
    1.4733  -34.3225   -8.1264 N   0  0  0  0  0  0  0  0  0  0  0  0
    1.0770  -35.7016   -8.4403 C   0  0  0  0  0  0  0  0  0  0  0  0
    2.7337  -34.0150   -7.6226 C   0  0  0  0  0  0  0  0  0  0  0  0
    3.1169  -32.9254   -7.1787 O   0  0  0  0  0  0  0  0  0  0  0  0
    3.7926  -35.1287   -7.5507 C   0  0  0  0  0  0  0  0  0  0  0  0
    3.4870  -36.0402   -6.3268 N   0  0  0  0  0  0  0  0  0  0  0  0
    3.9691  -37.4692   -6.4279 C   0  0  0  0  0  0  0  0  0  0  0  0
    5.4525  -37.6052   -6.0088 C   0  0  0  0  0  0  0  0  0  0  0  0
    5.6931  -36.9954   -4.6280 N   0  0  0  0  0  0  0  0  0  0  0  0
    7.1399  -37.1448   -4.2002 C   0  0  0  0  0  0  0  0  0  0  0  0
    5.2334  -35.5405   -4.5417 C   0  0  0  0  0  0  0  0  0  0  0  0
    3.7547  -35.3887   -4.9748 C   0  0  0  0  0  0  0  0  0  0  0  0
    2.4432  -36.0677   -6.3765 H   0  0  0  0  0  0  0  0  0  0  0  0
    5.1585  -37.5433   -3.9341 H   0  0  0  0  0  0  0  0  0  0  0  0
   -4.3003  -31.8623   -9.2426 C   0  0  0  0  0  0  0  0  0  0  0  0
   -3.4239  -32.9384   -9.4134 C   0  0  0  0  0  0  0  0  0  0  0  0
   -3.9255  -34.1756   -9.8174 C   0  0  0  0  0  0  0  0  0  0  0  0
   -5.2937  -34.3320  -10.0505 C   0  0  0  0  0  0  0  0  0  0  0  0
   -6.1658  -33.2544   -9.8796 C   0  0  0  0  0  0  0  0  0  0  0  0
   -5.6714  -32.0145   -9.4751 C   0  0  0  0  0  0  0  0  0  0  0  0
  3  4  1  0
  4  5  1  0
  5  6  1  0
  6  7  2  0
  7  8  1  0
  8 15  1  0
 15 16  2  0
 15 17  1  0
 17 18  1  0
  8  9  2  0
  9 10  1  0
 10 11  2  0
 11 12  1  0
 12  1  1  0
  1  2  2  0
  2 19  1  0
 19 20  2  0
 20 21  1  0
 21 22  2  0
 22 25  1  0
 25 26  1  0
 25 27  1  0
 27 28  2  0
 27 29  1  0
 29 30  1  0
 30 31  1  0
 31 32  1  0
 32 33  1  0
 33 34  1  0
 33 35  1  0
 35 36  1  0
 22 23  1  0
 23 24  2  0
  1 39  1  0
 39 40  2  0
 40 41  1  0
 41 42  2  0
 42 43  1  0
 43 44  2  0
 12  4  2  0
 24 19  1  0
 44 39  1  0
 11  6  1  0
 36 30  1  0
  3 13  1  0
  5 14  1  0
 30 37  1  0
 33 38  1  0
M  CHG 1  30   1
M  CHG 1  33   1
M  END
> <ScrubInfo>
{"isomerGroup": 0, "isomerId": 0, "confId": 0, "nr_conformers:": 1, "nr_isomers:": 1}

> <minimizedAffinity>
-8.06811

$$$$



 44 48  0  0  0  0  0  0  0  0999 V2000
   -1.6497  -30.3346   -8.6227 C   0  0  0  0  0  0  0  0  0  0  0  0
   -0.5674  -30.1416   -7.9234 N   0  0  0  0  0  0  0  0  0  0  0  0
   -0.5970  -27.4547   -9.2266 O   0  0  0  0  0  0  0  0  0  0  0  0
   -1.8545  -27.8817   -9.2820 C   0  0  0  0  0  0  0  0  0  0  0  0
   -2.8753  -27.0416   -9.6450 N   0  0  0  0  0  0  0  0  0  0  0  0
   -4.0756  -27.7086   -9.6486 C   0  0  0  0  0  0  0  0  0  0  0  0
   -5.3629  -27.2400   -9.9543 C   0  0  0  0  0  0  0  0  0  0  0  0
   -6.4290  -28.1511   -9.8778 C   0  0  0  0  0  0  0  0  0  0  0  0
   -6.1936  -29.4782   -9.5072 C   0  0  0  0  0  0  0  0  0  0  0  0
   -4.8992  -29.9226   -9.2070 C   0  0  0  0  0  0  0  0  0  0  0  0
   -3.8103  -29.0260   -9.2782 C   0  0  0  0  0  0  0  0  0  0  0  0
   -2.3925  -29.1377   -9.0351 C   0  0  0  0  0  0  0  0  0  0  0  0
   -0.5430  -26.5162   -9.4751 H   0  0  0  0  0  0  0  0  0  0  0  0
   -2.7754  -26.0665   -9.8858 H   0  0  0  0  0  0  0  0  0  0  0  0
   -7.8325  -27.7526  -10.1800 C   0  0  0  0  0  0  0  0  0  0  0  0
   -8.3471  -27.8822  -11.2798 O   0  0  0  0  0  0  0  0  0  0  0  0
   -8.4339  -27.2387   -9.0779 O   0  0  0  0  0  0  0  0  0  0  0  0
   -7.6192  -26.3185   -8.3490 C   0  0  0  0  0  0  0  0  0  0  0  0
    0.2396  -31.2071   -7.5209 C   0  0  0  0  0  0  0  0  0  0  0  0
    1.4588  -31.4340   -8.1496 C   0  0  0  0  0  0  0  0  0  0  0  0
    2.2488  -32.5375   -7.8009 C   0  0  0  0  0  0  0  0  0  0  0  0
    1.8273  -33.4635   -6.8295 C   0  0  0  0  0  0  0  0  0  0  0  0
    0.5933  -33.2188   -6.2083 C   0  0  0  0  0  0  0  0  0  0  0  0
   -0.1935  -32.1122   -6.5569 C   0  0  0  0  0  0  0  0  0  0  0  0
    2.6455  -34.6108   -6.4905 N   0  0  0  0  0  0  0  0  0  0  0  0
    3.8390  -34.3426   -5.6775 C   0  0  0  0  0  0  0  0  0  0  0  0
    2.3919  -35.8666   -7.0345 C   0  0  0  0  0  0  0  0  0  0  0  0
    1.5146  -36.1634   -7.8550 O   0  0  0  0  0  0  0  0  0  0  0  0
    3.2997  -37.0422   -6.6341 C   0  0  0  0  0  0  0  0  0  0  0  0
    4.6113  -36.9770   -7.4693 N   0  0  0  0  0  0  0  0  0  0  0  0
    5.5034  -38.1951   -7.3984 C   0  0  0  0  0  0  0  0  0  0  0  0
    5.0608  -39.2894   -8.3989 C   0  0  0  0  0  0  0  0  0  0  0  0
    4.9399  -38.7255   -9.8145 N   0  0  0  0  0  0  0  0  0  0  0  0
    4.5283  -39.7969  -10.8051 C   0  0  0  0  0  0  0  0  0  0  0  0
    4.0110  -37.5140   -9.8854 C   0  0  0  0  0  0  0  0  0  0  0  0
    4.4338  -36.4183   -8.8765 C   0  0  0  0  0  0  0  0  0  0  0  0
    5.1087  -36.2068   -6.9671 H   0  0  0  0  0  0  0  0  0  0  0  0
    5.8792  -38.4293  -10.1265 H   0  0  0  0  0  0  0  0  0  0  0  0
   -2.1615  -31.6642   -9.0396 C   0  0  0  0  0  0  0  0  0  0  0  0
   -1.7000  -32.2492  -10.2228 C   0  0  0  0  0  0  0  0  0  0  0  0
   -2.1936  -33.4944  -10.6117 C   0  0  0  0  0  0  0  0  0  0  0  0
   -3.1436  -34.1465   -9.8223 C   0  0  0  0  0  0  0  0  0  0  0  0
   -3.6026  -33.5584   -8.6414 C   0  0  0  0  0  0  0  0  0  0  0  0
   -3.1129  -32.3138   -8.2460 C   0  0  0  0  0  0  0  0  0  0  0  0
  3  4  1  0
  4  5  1  0
  5  6  1  0
  6  7  2  0
  7  8  1  0
  8 15  1  0
 15 16  2  0
 15 17  1  0
 17 18  1  0
  8  9  2  0
  9 10  1  0
 10 11  2  0
 11 12  1  0
 12  1  1  0
  1  2  2  0
  2 19  1  0
 19 20  2  0
 20 21  1  0
 21 22  2  0
 22 25  1  0
 25 26  1  0
 25 27  1  0
 27 28  2  0
 27 29  1  0
 29 30  1  0
 30 31  1  0
 31 32  1  0
 32 33  1  0
 33 34  1  0
 33 35  1  0
 35 36  1  0
 22 23  1  0
 23 24  2  0
  1 39  1  0
 39 40  2  0
 40 41  1  0
 41 42  2  0
 42 43  1  0
 43 44  2  0
 12  4  2  0
 24 19  1  0
 44 39  1  0
 11  6  1  0
 36 30  1  0
  3 13  1  0
  5 14  1  0
 30 37  1  0
 33 38  1  0
M  CHG 1  30   1
M  CHG 1  33   1
M  END
> <ScrubInfo>
{"isomerGroup": 0, "isomerId": 0, "confId": 0, "nr_conformers:": 1, "nr_isomers:": 1}

> <minimizedAffinity>
-8.02012

$$$$



 44 48  0  0  0  0  0  0  0  0999 V2000
   -0.3599  -30.7418   -8.1946 C   0  0  0  0  0  0  0  0  0  0  0  0
    0.8030  -31.0300   -7.6824 N   0  0  0  0  0  0  0  0  0  0  0  0
    1.4724  -28.2148   -8.0403 O   0  0  0  0  0  0  0  0  0  0  0  0
    0.1498  -28.2451   -8.1686 C   0  0  0  0  0  0  0  0  0  0  0  0
   -0.5821  -27.0897   -8.2623 N   0  0  0  0  0  0  0  0  0  0  0  0
   -1.9183  -27.3714   -8.4066 C   0  0  0  0  0  0  0  0  0  0  0  0
   -3.0112  -26.5001   -8.5360 C   0  0  0  0  0  0  0  0  0  0  0  0
   -4.2895  -27.0656   -8.6724 C   0  0  0  0  0  0  0  0  0  0  0  0
   -4.4463  -28.4546   -8.6769 C   0  0  0  0  0  0  0  0  0  0  0  0
   -3.3397  -29.3040   -8.5466 C   0  0  0  0  0  0  0  0  0  0  0  0
   -2.0437  -28.7597   -8.4097 C   0  0  0  0  0  0  0  0  0  0  0  0
   -0.7243  -29.3209   -8.2493 C   0  0  0  0  0  0  0  0  0  0  0  0
    1.7944  -27.2973   -8.0309 H   0  0  0  0  0  0  0  0  0  0  0  0
   -0.2064  -26.1533   -8.2372 H   0  0  0  0  0  0  0  0  0  0  0  0
   -5.5135  -26.2278   -8.8135 C   0  0  0  0  0  0  0  0  0  0  0  0
   -6.6308  -26.6912   -8.9809 O   0  0  0  0  0  0  0  0  0  0  0  0
   -5.2055  -24.9092   -8.7298 O   0  0  0  0  0  0  0  0  0  0  0  0
   -5.7862  -24.2487   -7.6038 C   0  0  0  0  0  0  0  0  0  0  0  0
    1.2685  -32.3448   -7.6261 C   0  0  0  0  0  0  0  0  0  0  0  0
    2.6241  -32.5968   -7.4472 C   0  0  0  0  0  0  0  0  0  0  0  0
    3.1145  -33.9094   -7.4541 C   0  0  0  0  0  0  0  0  0  0  0  0
    2.2638  -35.0089   -7.6685 C   0  0  0  0  0  0  0  0  0  0  0  0
    0.8999  -34.7341   -7.8496 C   0  0  0  0  0  0  0  0  0  0  0  0
    0.4116  -33.4201   -7.8389 C   0  0  0  0  0  0  0  0  0  0  0  0
    2.7862  -36.3607   -7.6912 N   0  0  0  0  0  0  0  0  0  0  0  0
    3.0566  -36.9769   -6.3856 C   0  0  0  0  0  0  0  0  0  0  0  0
    3.1506  -36.9757   -8.8854 C   0  0  0  0  0  0  0  0  0  0  0  0
    3.1172  -36.4846  -10.0207 O   0  0  0  0  0  0  0  0  0  0  0  0
    3.6999  -38.4119   -8.8393 C   0  0  0  0  0  0  0  0  0  0  0  0
    2.5995  -39.3916   -9.3408 N   0  0  0  0  0  0  0  0  0  0  0  0
    2.7970  -39.9557  -10.7291 C   0  0  0  0  0  0  0  0  0  0  0  0
    3.7268  -41.1926  -10.7190 C   0  0  0  0  0  0  0  0  0  0  0  0
    3.2395  -42.2400   -9.7181 N   0  0  0  0  0  0  0  0  0  0  0  0
    4.1326  -43.4651   -9.7183 C   0  0  0  0  0  0  0  0  0  0  0  0
    3.0729  -41.6716   -8.3093 C   0  0  0  0  0  0  0  0  0  0  0  0
    2.1576  -40.4228   -8.3086 C   0  0  0  0  0  0  0  0  0  0  0  0
    1.7843  -38.7393   -9.3913 H   0  0  0  0  0  0  0  0  0  0  0  0
    2.3199  -42.5881  -10.0352 H   0  0  0  0  0  0  0  0  0  0  0  0
   -1.3166  -31.7395   -8.7359 C   0  0  0  0  0  0  0  0  0  0  0  0
   -2.2568  -32.3344   -7.8890 C   0  0  0  0  0  0  0  0  0  0  0  0
   -3.1455  -33.2780   -8.4042 C   0  0  0  0  0  0  0  0  0  0  0  0
   -3.0904  -33.6239   -9.7562 C   0  0  0  0  0  0  0  0  0  0  0  0
   -2.1492  -33.0279  -10.5987 C   0  0  0  0  0  0  0  0  0  0  0  0
   -1.2578  -32.0830  -10.0907 C   0  0  0  0  0  0  0  0  0  0  0  0
  3  4  1  0
  4  5  1  0
  5  6  1  0
  6  7  2  0
  7  8  1  0
  8 15  1  0
 15 16  2  0
 15 17  1  0
 17 18  1  0
  8  9  2  0
  9 10  1  0
 10 11  2  0
 11 12  1  0
 12  1  1  0
  1  2  2  0
  2 19  1  0
 19 20  2  0
 20 21  1  0
 21 22  2  0
 22 25  1  0
 25 26  1  0
 25 27  1  0
 27 28  2  0
 27 29  1  0
 29 30  1  0
 30 31  1  0
 31 32  1  0
 32 33  1  0
 33 34  1  0
 33 35  1  0
 35 36  1  0
 22 23  1  0
 23 24  2  0
  1 39  1  0
 39 40  2  0
 40 41  1  0
 41 42  2  0
 42 43  1  0
 43 44  2  0
 12  4  2  0
 24 19  1  0
 44 39  1  0
 11  6  1  0
 36 30  1  0
  3 13  1  0
  5 14  1  0
 30 37  1  0
 33 38  1  0
M  CHG 1  30   1
M  CHG 1  33   1
M  END
> <ScrubInfo>
{"isomerGroup": 0, "isomerId": 0, "confId": 0, "nr_conformers:": 1, "nr_isomers:": 1}

> <minimizedAffinity>
-7.86811

$$$$



 44 48  0  0  0  0  0  0  0  0999 V2000
    1.3906  -35.2523   -7.6154 C   0  0  0  0  0  0  0  0  0  0  0  0
    0.4206  -35.4060   -8.4716 N   0  0  0  0  0  0  0  0  0  0  0  0
    2.3630  -36.9233   -5.1600 O   0  0  0  0  0  0  0  0  0  0  0  0
    2.7806  -37.0210   -6.4181 C   0  0  0  0  0  0  0  0  0  0  0  0
    3.7354  -37.9352   -6.7814 N   0  0  0  0  0  0  0  0  0  0  0  0
    3.9892  -37.8633   -8.1290 C   0  0  0  0  0  0  0  0  0  0  0  0
    4.8836  -38.6059   -8.9157 C   0  0  0  0  0  0  0  0  0  0  0  0
    4.9409  -38.3227  -10.2900 C   0  0  0  0  0  0  0  0  0  0  0  0
    4.1242  -37.3288  -10.8370 C   0  0  0  0  0  0  0  0  0  0  0  0
    3.2388  -36.6010  -10.0313 C   0  0  0  0  0  0  0  0  0  0  0  0
    3.1615  -36.8682   -8.6466 C   0  0  0  0  0  0  0  0  0  0  0  0
    2.3937  -36.3222   -7.5539 C   0  0  0  0  0  0  0  0  0  0  0  0
    2.8206  -37.5703   -4.5964 H   0  0  0  0  0  0  0  0  0  0  0  0
    4.1941  -38.5837   -6.1587 H   0  0  0  0  0  0  0  0  0  0  0  0
    5.8582  -39.0523  -11.2099 C   0  0  0  0  0  0  0  0  0  0  0  0
    5.6256  -40.1687  -11.6466 O   0  0  0  0  0  0  0  0  0  0  0  0
    6.9596  -38.3078  -11.4803 O   0  0  0  0  0  0  0  0  0  0  0  0
    7.1372  -37.1953  -10.6016 C   0  0  0  0  0  0  0  0  0  0  0  0
   -0.5593  -34.4272   -8.6456 C   0  0  0  0  0  0  0  0  0  0  0  0
   -1.8867  -34.7086   -8.3422 C   0  0  0  0  0  0  0  0  0  0  0  0
   -2.8901  -33.7583   -8.5733 C   0  0  0  0  0  0  0  0  0  0  0  0
   -2.5967  -32.5056   -9.1419 C   0  0  0  0  0  0  0  0  0  0  0  0
   -1.2522  -32.2414   -9.4435 C   0  0  0  0  0  0  0  0  0  0  0  0
   -0.2500  -33.1929   -9.2082 C   0  0  0  0  0  0  0  0  0  0  0  0
   -3.6463  -31.5380   -9.3926 N   0  0  0  0  0  0  0  0  0  0  0  0
   -5.0249  -32.0084   -9.2043 C   0  0  0  0  0  0  0  0  0  0  0  0
   -3.3624  -30.2845   -9.9267 C   0  0  0  0  0  0  0  0  0  0  0  0
   -2.2562  -29.8519  -10.2736 O   0  0  0  0  0  0  0  0  0  0  0  0
   -4.5232  -29.3048  -10.1698 C   0  0  0  0  0  0  0  0  0  0  0  0
   -4.9395  -28.6656   -8.8132 N   0  0  0  0  0  0  0  0  0  0  0  0
   -3.8084  -28.2040   -7.9233 C   0  0  0  0  0  0  0  0  0  0  0  0
   -3.3193  -26.7866   -8.3056 C   0  0  0  0  0  0  0  0  0  0  0  0
   -4.4820  -25.7952   -8.3477 N   0  0  0  0  0  0  0  0  0  0  0  0
   -4.0078  -24.3988   -8.6997 C   0  0  0  0  0  0  0  0  0  0  0  0
   -5.6082  -26.2518   -9.2744 C   0  0  0  0  0  0  0  0  0  0  0  0
   -6.0951  -27.6763   -8.9123 C   0  0  0  0  0  0  0  0  0  0  0  0
   -5.3736  -29.4945   -8.3472 H   0  0  0  0  0  0  0  0  0  0  0  0
   -4.8670  -25.7066   -7.3931 H   0  0  0  0  0  0  0  0  0  0  0  0
    1.5556  -34.0751   -6.7263 C   0  0  0  0  0  0  0  0  0  0  0  0
    0.7330  -33.9276   -5.6052 C   0  0  0  0  0  0  0  0  0  0  0  0
    0.8886  -32.8134   -4.7807 C   0  0  0  0  0  0  0  0  0  0  0  0
    1.8589  -31.8540   -5.0790 C   0  0  0  0  0  0  0  0  0  0  0  0
    2.6780  -32.0046   -6.2003 C   0  0  0  0  0  0  0  0  0  0  0  0
    2.5286  -33.1167   -7.0288 C   0  0  0  0  0  0  0  0  0  0  0  0
  3  4  1  0
  4  5  1  0
  5  6  1  0
  6  7  2  0
  7  8  1  0
  8 15  1  0
 15 16  2  0
 15 17  1  0
 17 18  1  0
  8  9  2  0
  9 10  1  0
 10 11  2  0
 11 12  1  0
 12  1  1  0
  1  2  2  0
  2 19  1  0
 19 20  2  0
 20 21  1  0
 21 22  2  0
 22 25  1  0
 25 26  1  0
 25 27  1  0
 27 28  2  0
 27 29  1  0
 29 30  1  0
 30 31  1  0
 31 32  1  0
 32 33  1  0
 33 34  1  0
 33 35  1  0
 35 36  1  0
 22 23  1  0
 23 24  2  0
  1 39  1  0
 39 40  2  0
 40 41  1  0
 41 42  2  0
 42 43  1  0
 43 44  2  0
 12  4  2  0
 24 19  1  0
 44 39  1  0
 11  6  1  0
 36 30  1  0
  3 13  1  0
  5 14  1  0
 30 37  1  0
 33 38  1  0
M  CHG 1  30   1
M  CHG 1  33   1
M  END
> <ScrubInfo>
{"isomerGroup": 0, "isomerId": 0, "confId": 0, "nr_conformers:": 1, "nr_isomers:": 1}

> <minimizedAffinity>
-7.86705

$$$$



 44 48  0  0  0  0  0  0  0  0999 V2000
   -0.5222  -30.5983   -7.9490 C   0  0  0  0  0  0  0  0  0  0  0  0
    0.5381  -30.8111   -7.2223 N   0  0  0  0  0  0  0  0  0  0  0  0
    1.2569  -28.0359   -8.1381 O   0  0  0  0  0  0  0  0  0  0  0  0
   -0.0684  -28.1046   -8.2126 C   0  0  0  0  0  0  0  0  0  0  0  0
   -0.8291  -26.9802   -8.4034 N   0  0  0  0  0  0  0  0  0  0  0  0
   -2.1629  -27.3007   -8.4661 C   0  0  0  0  0  0  0  0  0  0  0  0
   -3.2791  -26.4693   -8.6480 C   0  0  0  0  0  0  0  0  0  0  0  0
   -4.5483  -27.0699   -8.6742 C   0  0  0  0  0  0  0  0  0  0  0  0
   -4.6738  -28.4538   -8.5224 C   0  0  0  0  0  0  0  0  0  0  0  0
   -3.5443  -29.2632   -8.3425 C   0  0  0  0  0  0  0  0  0  0  0  0
   -2.2569  -28.6832   -8.3141 C   0  0  0  0  0  0  0  0  0  0  0  0
   -0.9203  -29.1989   -8.1435 C   0  0  0  0  0  0  0  0  0  0  0  0
    1.5582  -27.1170   -8.2402 H   0  0  0  0  0  0  0  0  0  0  0  0
   -0.4740  -26.0398   -8.4940 H   0  0  0  0  0  0  0  0  0  0  0  0
   -5.7951  -26.2755   -8.8592 C   0  0  0  0  0  0  0  0  0  0  0  0
   -5.9756  -25.1787   -8.3537 O   0  0  0  0  0  0  0  0  0  0  0  0
   -6.6738  -26.9381   -9.6525 O   0  0  0  0  0  0  0  0  0  0  0  0
   -7.9546  -27.1436   -9.0535 C   0  0  0  0  0  0  0  0  0  0  0  0
    1.0316  -32.1001   -7.0137 C   0  0  0  0  0  0  0  0  0  0  0  0
    2.1193  -32.5572   -7.7494 C   0  0  0  0  0  0  0  0  0  0  0  0
    2.5842  -33.8702   -7.5977 C   0  0  0  0  0  0  0  0  0  0  0  0
    1.9552  -34.7745   -6.7230 C   0  0  0  0  0  0  0  0  0  0  0  0
    0.8580  -34.2954   -5.9913 C   0  0  0  0  0  0  0  0  0  0  0  0
    0.3970  -32.9802   -6.1428 C   0  0  0  0  0  0  0  0  0  0  0  0
    2.4348  -36.1356   -6.5883 N   0  0  0  0  0  0  0  0  0  0  0  0
    3.1136  -36.4656   -5.3283 C   0  0  0  0  0  0  0  0  0  0  0  0
    2.3863  -37.0288   -7.6546 C   0  0  0  0  0  0  0  0  0  0  0  0
    1.9865  -36.8018   -8.8034 O   0  0  0  0  0  0  0  0  0  0  0  0
    2.9135  -38.4587   -7.4451 C   0  0  0  0  0  0  0  0  0  0  0  0
    4.4231  -38.5025   -7.8211 N   0  0  0  0  0  0  0  0  0  0  0  0
    4.8608  -39.6732   -8.6710 C   0  0  0  0  0  0  0  0  0  0  0  0
    4.6151  -39.4129  -10.1764 C   0  0  0  0  0  0  0  0  0  0  0  0
    5.2461  -38.0924  -10.6175 N   0  0  0  0  0  0  0  0  0  0  0  0
    5.0292  -37.8407  -12.0967 C   0  0  0  0  0  0  0  0  0  0  0  0
    4.7747  -36.9075   -9.7752 C   0  0  0  0  0  0  0  0  0  0  0  0
    4.9999  -37.1629   -8.2648 C   0  0  0  0  0  0  0  0  0  0  0  0
    4.8426  -38.6414   -6.8737 H   0  0  0  0  0  0  0  0  0  0  0  0
    6.2710  -38.1726  -10.5144 H   0  0  0  0  0  0  0  0  0  0  0  0
   -1.3295  -31.6610   -8.5989 C   0  0  0  0  0  0  0  0  0  0  0  0
   -1.0696  -32.0212   -9.9248 C   0  0  0  0  0  0  0  0  0  0  0  0
   -1.8395  -33.0141  -10.5305 C   0  0  0  0  0  0  0  0  0  0  0  0
   -2.8627  -33.6388   -9.8139 C   0  0  0  0  0  0  0  0  0  0  0  0
   -3.1196  -33.2757   -8.4899 C   0  0  0  0  0  0  0  0  0  0  0  0
   -2.3533  -32.2841   -7.8775 C   0  0  0  0  0  0  0  0  0  0  0  0
  3  4  1  0
  4  5  1  0
  5  6  1  0
  6  7  2  0
  7  8  1  0
  8 15  1  0
 15 16  2  0
 15 17  1  0
 17 18  1  0
  8  9  2  0
  9 10  1  0
 10 11  2  0
 11 12  1  0
 12  1  1  0
  1  2  2  0
  2 19  1  0
 19 20  2  0
 20 21  1  0
 21 22  2  0
 22 25  1  0
 25 26  1  0
 25 27  1  0
 27 28  2  0
 27 29  1  0
 29 30  1  0
 30 31  1  0
 31 32  1  0
 32 33  1  0
 33 34  1  0
 33 35  1  0
 35 36  1  0
 22 23  1  0
 23 24  2  0
  1 39  1  0
 39 40  2  0
 40 41  1  0
 41 42  2  0
 42 43  1  0
 43 44  2  0
 12  4  2  0
 24 19  1  0
 44 39  1  0
 11  6  1  0
 36 30  1  0
  3 13  1  0
  5 14  1  0
 30 37  1  0
 33 38  1  0
M  CHG 1  30   1
M  CHG 1  33   1
M  END
> <ScrubInfo>
{"isomerGroup": 0, "isomerId": 0, "confId": 0, "nr_conformers:": 1, "nr_isomers:": 1}

> <minimizedAffinity>
-7.84584

$$$$



 44 48  0  0  0  0  0  0  0  0999 V2000
   -1.7905  -30.3297   -8.6978 C   0  0  0  0  0  0  0  0  0  0  0  0
   -0.6926  -30.1397   -8.0224 N   0  0  0  0  0  0  0  0  0  0  0  0
   -0.7694  -27.4122   -9.1585 O   0  0  0  0  0  0  0  0  0  0  0  0
   -2.0165  -27.8575   -9.2734 C   0  0  0  0  0  0  0  0  0  0  0  0
   -3.0390  -27.0215   -9.6407 N   0  0  0  0  0  0  0  0  0  0  0  0
   -4.2264  -27.7078   -9.7107 C   0  0  0  0  0  0  0  0  0  0  0  0
   -5.5106  -27.2495  -10.0438 C   0  0  0  0  0  0  0  0  0  0  0  0
   -6.5622  -28.1803  -10.0380 C   0  0  0  0  0  0  0  0  0  0  0  0
   -6.3160  -29.5162   -9.7083 C   0  0  0  0  0  0  0  0  0  0  0  0
   -5.0250  -29.9500   -9.3797 C   0  0  0  0  0  0  0  0  0  0  0  0
   -3.9504  -29.0335   -9.3798 C   0  0  0  0  0  0  0  0  0  0  0  0
   -2.5400  -29.1306   -9.0917 C   0  0  0  0  0  0  0  0  0  0  0  0
   -0.7237  -26.4642   -9.3704 H   0  0  0  0  0  0  0  0  0  0  0  0
   -2.9484  -26.0367   -9.8420 H   0  0  0  0  0  0  0  0  0  0  0  0
   -7.9615  -27.7942  -10.3741 C   0  0  0  0  0  0  0  0  0  0  0  0
   -8.5080  -28.0919  -11.4248 O   0  0  0  0  0  0  0  0  0  0  0  0
   -8.5193  -27.0818   -9.3633 O   0  0  0  0  0  0  0  0  0  0  0  0
   -7.5958  -26.7081   -8.3392 C   0  0  0  0  0  0  0  0  0  0  0  0
    0.1211  -31.2075   -7.6396 C   0  0  0  0  0  0  0  0  0  0  0  0
   -0.3276  -32.1203   -6.6916 C   0  0  0  0  0  0  0  0  0  0  0  0
    0.5029  -33.1588   -6.2498 C   0  0  0  0  0  0  0  0  0  0  0  0
    1.8195  -33.2977   -6.7250 C   0  0  0  0  0  0  0  0  0  0  0  0
    2.2547  -32.3655   -7.6791 C   0  0  0  0  0  0  0  0  0  0  0  0
    1.4205  -31.3294   -8.1217 C   0  0  0  0  0  0  0  0  0  0  0  0
    2.6746  -34.3657   -6.2467 N   0  0  0  0  0  0  0  0  0  0  0  0
    3.5440  -34.0437   -5.1075 C   0  0  0  0  0  0  0  0  0  0  0  0
    2.7712  -35.5755   -6.9279 C   0  0  0  0  0  0  0  0  0  0  0  0
    2.2083  -35.8861   -7.9852 O   0  0  0  0  0  0  0  0  0  0  0  0
    3.6987  -36.6672   -6.3672 C   0  0  0  0  0  0  0  0  0  0  0  0
    2.8323  -37.8541   -5.8545 N   0  0  0  0  0  0  0  0  0  0  0  0
    2.9193  -39.1328   -6.6557 C   0  0  0  0  0  0  0  0  0  0  0  0
    4.1347  -39.9926   -6.2339 C   0  0  0  0  0  0  0  0  0  0  0  0
    4.1392  -40.2378   -4.7252 N   0  0  0  0  0  0  0  0  0  0  0  0
    5.3149  -41.0986   -4.3066 C   0  0  0  0  0  0  0  0  0  0  0  0
    4.0840  -38.9397   -3.9204 C   0  0  0  0  0  0  0  0  0  0  0  0
    2.8810  -38.0625   -4.3452 C   0  0  0  0  0  0  0  0  0  0  0  0
    1.8759  -37.4622   -6.0111 H   0  0  0  0  0  0  0  0  0  0  0  0
    3.3063  -40.8002   -4.4858 H   0  0  0  0  0  0  0  0  0  0  0  0
   -2.3140  -31.6576   -9.1053 C   0  0  0  0  0  0  0  0  0  0  0  0
   -1.8025  -32.2893  -10.2430 C   0  0  0  0  0  0  0  0  0  0  0  0
   -2.3072  -33.5326  -10.6239 C   0  0  0  0  0  0  0  0  0  0  0  0
   -3.3176  -34.1362   -9.8720 C   0  0  0  0  0  0  0  0  0  0  0  0
   -3.8264  -33.5015   -8.7366 C   0  0  0  0  0  0  0  0  0  0  0  0
   -3.3261  -32.2585   -8.3493 C   0  0  0  0  0  0  0  0  0  0  0  0
  3  4  1  0
  4  5  1  0
  5  6  1  0
  6  7  2  0
  7  8  1  0
  8 15  1  0
 15 16  2  0
 15 17  1  0
 17 18  1  0
  8  9  2  0
  9 10  1  0
 10 11  2  0
 11 12  1  0
 12  1  1  0
  1  2  2  0
  2 19  1  0
 19 20  2  0
 20 21  1  0
 21 22  2  0
 22 25  1  0
 25 26  1  0
 25 27  1  0
 27 28  2  0
 27 29  1  0
 29 30  1  0
 30 31  1  0
 31 32  1  0
 32 33  1  0
 33 34  1  0
 33 35  1  0
 35 36  1  0
 22 23  1  0
 23 24  2  0
  1 39  1  0
 39 40  2  0
 40 41  1  0
 41 42  2  0
 42 43  1  0
 43 44  2  0
 12  4  2  0
 24 19  1  0
 44 39  1  0
 11  6  1  0
 36 30  1  0
  3 13  1  0
  5 14  1  0
 30 37  1  0
 33 38  1  0
M  CHG 1  30   1
M  CHG 1  33   1
M  END
> <ScrubInfo>
{"isomerGroup": 0, "isomerId": 0, "confId": 0, "nr_conformers:": 1, "nr_isomers:": 1}

> <minimizedAffinity>
-7.77121

$$$$



 44 48  0  0  0  0  0  0  0  0999 V2000
   -1.4800  -31.8971   -8.7393 C   0  0  0  0  0  0  0  0  0  0  0  0
   -0.5810  -30.9606   -8.8511 N   0  0  0  0  0  0  0  0  0  0  0  0
   -2.7967  -34.5960   -9.6048 O   0  0  0  0  0  0  0  0  0  0  0  0
   -1.6341  -34.4291   -8.9826 C   0  0  0  0  0  0  0  0  0  0  0  0
   -0.8456  -35.5001   -8.6498 N   0  0  0  0  0  0  0  0  0  0  0  0
    0.3086  -35.0812   -8.0350 C   0  0  0  0  0  0  0  0  0  0  0  0
    1.3836  -35.8325   -7.5347 C   0  0  0  0  0  0  0  0  0  0  0  0
    2.4534  -35.1378   -6.9471 C   0  0  0  0  0  0  0  0  0  0  0  0
    2.4286  -33.7421   -6.8733 C   0  0  0  0  0  0  0  0  0  0  0  0
    1.3443  -33.0139   -7.3803 C   0  0  0  0  0  0  0  0  0  0  0  0
    0.2571  -33.6894   -7.9773 C   0  0  0  0  0  0  0  0  0  0  0  0
   -0.9873  -33.2700   -8.5748 C   0  0  0  0  0  0  0  0  0  0  0  0
   -2.9648  -35.5396   -9.7687 H   0  0  0  0  0  0  0  0  0  0  0  0
   -1.0647  -36.4687   -8.8300 H   0  0  0  0  0  0  0  0  0  0  0  0
    3.6396  -35.8423   -6.3844 C   0  0  0  0  0  0  0  0  0  0  0  0
    4.2201  -35.4805   -5.3729 O   0  0  0  0  0  0  0  0  0  0  0  0
    3.9663  -36.9164   -7.1460 O   0  0  0  0  0  0  0  0  0  0  0  0
    3.5404  -38.1658   -6.5990 C   0  0  0  0  0  0  0  0  0  0  0  0
   -0.9397  -29.6163   -8.9634 C   0  0  0  0  0  0  0  0  0  0  0  0
   -1.8361  -29.2142   -9.9472 C   0  0  0  0  0  0  0  0  0  0  0  0
   -2.1551  -27.8600  -10.1138 C   0  0  0  0  0  0  0  0  0  0  0  0
   -1.5635  -26.8638   -9.3162 C   0  0  0  0  0  0  0  0  0  0  0  0
   -0.6597  -27.2890   -8.3309 C   0  0  0  0  0  0  0  0  0  0  0  0
   -0.3449  -28.6448   -8.1644 C   0  0  0  0  0  0  0  0  0  0  0  0
   -1.8883  -25.4646   -9.5104 N   0  0  0  0  0  0  0  0  0  0  0  0
   -1.3664  -24.8379  -10.7319 C   0  0  0  0  0  0  0  0  0  0  0  0
   -2.5284  -24.7261   -8.5195 C   0  0  0  0  0  0  0  0  0  0  0  0
   -2.8619  -25.1157   -7.3934 O   0  0  0  0  0  0  0  0  0  0  0  0
   -2.8430  -23.2446   -8.7891 C   0  0  0  0  0  0  0  0  0  0  0  0
   -4.3068  -23.1228   -9.3035 N   0  0  0  0  0  0  0  0  0  0  0  0
   -4.6114  -23.8232  -10.6078 C   0  0  0  0  0  0  0  0  0  0  0  0
   -4.9371  -25.3205  -10.3926 C   0  0  0  0  0  0  0  0  0  0  0  0
   -6.0422  -25.5000   -9.3519 N   0  0  0  0  0  0  0  0  0  0  0  0
   -6.3831  -26.9637   -9.1516 C   0  0  0  0  0  0  0  0  0  0  0  0
   -5.7139  -24.8172   -8.0247 C   0  0  0  0  0  0  0  0  0  0  0  0
   -5.3697  -23.3215   -8.2289 C   0  0  0  0  0  0  0  0  0  0  0  0
   -4.3480  -22.0957   -9.4936 H   0  0  0  0  0  0  0  0  0  0  0  0
   -6.9093  -25.0793   -9.7242 H   0  0  0  0  0  0  0  0  0  0  0  0
   -2.9465  -31.6673   -8.7474 C   0  0  0  0  0  0  0  0  0  0  0  0
   -3.7338  -32.2245   -9.7597 C   0  0  0  0  0  0  0  0  0  0  0  0
   -5.1096  -31.9953   -9.7648 C   0  0  0  0  0  0  0  0  0  0  0  0
   -5.6908  -31.2122   -8.7649 C   0  0  0  0  0  0  0  0  0  0  0  0
   -4.9008  -30.6568   -7.7559 C   0  0  0  0  0  0  0  0  0  0  0  0
   -3.5244  -30.8823   -7.7440 C   0  0  0  0  0  0  0  0  0  0  0  0
  3  4  1  0
  4  5  1  0
  5  6  1  0
  6  7  2  0
  7  8  1  0
  8 15  1  0
 15 16  2  0
 15 17  1  0
 17 18  1  0
  8  9  2  0
  9 10  1  0
 10 11  2  0
 11 12  1  0
 12  1  1  0
  1  2  2  0
  2 19  1  0
 19 20  2  0
 20 21  1  0
 21 22  2  0
 22 25  1  0
 25 26  1  0
 25 27  1  0
 27 28  2  0
 27 29  1  0
 29 30  1  0
 30 31  1  0
 31 32  1  0
 32 33  1  0
 33 34  1  0
 33 35  1  0
 35 36  1  0
 22 23  1  0
 23 24  2  0
  1 39  1  0
 39 40  2  0
 40 41  1  0
 41 42  2  0
 42 43  1  0
 43 44  2  0
 12  4  2  0
 24 19  1  0
 44 39  1  0
 11  6  1  0
 36 30  1  0
  3 13  1  0
  5 14  1  0
 30 37  1  0
 33 38  1  0
M  CHG 1  30   1
M  CHG 1  33   1
M  END
> <ScrubInfo>
{"isomerGroup": 0, "isomerId": 0, "confId": 0, "nr_conformers:": 1, "nr_isomers:": 1}

> <minimizedAffinity>
-7.50240

$$$$
